CMOS INVERTER
.SUBCKT INVERTER IN VDD VSS OUT
M1 OUT IN VSS VSS MOS1
.MODEL MOS1 NMOS VTO=1.5
M2 OUT IN VDD VDD MOS2
.MODEL MOS2 NMOS VTO=-1.5
.ENDS
X1. IN VDD 0 OUT INVERTER
C1 OUT 0 5.5pf
VDD VDD 0 5
VIN IN 0 DC 5 PULSE(0 5 0 1e-9 1e-9 1e-7 2e-7)

*stepsize = 1e-9
*finaltime = 1e-6
