FULL WAVE RECTIFIER
D1 IN OUT DIODE
.MODEL DIODE D TT=5e-9
D2 0 IN DIODE
D3 0 A DIODE
D4 A OUT DIODE
R1 OUT 0 100
VIN IN A 0 DC 5 SIN(0 10 50 0 0)

*stepsize = 1e-6
*finaltime = 100e-3
