INVERTER WITH BIPOLAR TRANSISTOR
R1 IN A 1k
C1 IN A 1p
RB A EB 7k
Q1 OUT A 0 TRANSISTOR
.MODEL TRANSISTOR NPN TR=5e-9 TF=8e-9
RC EC OUT 1k
C2 OUT 0 15p
VIN IN 0 DC 5 PULSE(0 5 0 1e-9 1e-9 0.1e-6 0.2e-6)
V1 EB 0 -1
V2 EC 0 5

*stepsize = 1e-10
*finaltime = 5e-7)
