NMOS NAND
.SUBCKT NAND A B VDD VGG 0 OUT
M1 OUT1 B 0 0 MOS1 w=1e-6 l=10e-6
.MODEL MOS1 NMOS VTO=2
M2 OUT A OUT1 OUT1 MOS2 w=1e-6 l=1e-6
.MODEL MOS2 NMOS VTO=1.5
M3 VDD VGG OUT OUT MOS1 w=1e-6 l=10e-6
.ENDS
X1 A B VDD VGG 0 OUT NAND
C1 0 OUT 0.5pf
VDD VDD 0 5
VGG VGG 0 7
VA A 0 DC 5 PULSE(0 5 0 1e-10 1e-10 1e-4 2e-4)
VB B 0 DC 5 PULSE(0 5 0 1e-10 1e-10 0.5e-4 1e-4)

*stepsize = 1e-7
*finaltime = 10e-4
