NMOS STATIC INVERTER
.SUBCKT INVERTER IN VDD VGG 0 OUT
M1 OUT IN 0 0 MOS1 w=1e-6 l=1e-6
.MODEL MOS1 NMOS VTO=1.5
M2 VDD VGG OUT OUT MOS2 w=1e-6 l=1e-6
.MODEL MOS2 NMOS VTO=2
.ENDS
X1. IN VDD VGG 0 OUT INVERTER
C1 OUT 0 0.5pf
VDD VDD 0 5
VGG VGG 0 7
VIN IN 0 DC 5 PULSE(0 5 0 1e-9 1e-9 1e-4 2e-4)

*stepsize = 1e-7
*finaltime = 10e-4
