REACTION REGULATOR
D1 IN OUT1 DIODE
.MODEL DIODE D TT=5e-9
D2 0 IN DIODE
D3 0 A DIODE
D4 A OUT1 DIODE
D5 0 VZ ZENDERDIODE
.MODEL ZENDERDIODE D BV=5.6
C1 0 OUT1 1m
R1 OUT1 VZ 220
Q1 OUT1 VZ OUT TRANSISTOR
.MODEL TRANSISTOR NPN TR=5e-9 TF=8e-9
RL 0 OUT 100
VIN IN A DC 5 SIN(0 10 50 0 0)

*stepsize = 1e-6
*finaltime = 100e-3
